6
atoms
C        0.6654945434      0.0000000000      0.0000000000                 
C       -0.6654945434      0.0000000000     -0.0000000000                 
H        1.2121598611      0.9374306572     -0.0000000000                 
H        1.2121598611     -0.9374306572      0.0000000000                 
H       -1.2121598611      0.9374306572      0.0000000000                 
H       -1.2121598611     -0.9374306572     -0.0000000000                 
